* File: /net/sim-2/scratch/archive/m_phy/x121/dev/1p0/pyxis/X121/X122_Layout/TOP/X122G001C/X122G001C_CCW.pex.netlist
* Created: Sun Aug 25 10:21:25 2013
* Program "Calibre xRC"
* Version "v2013.2_18.13"
* 
.subckt X122G001C  VDD VSS VSSA_RX VDDHA_RX RXN RXP VDDHA_TX VSSA_TX TXP TXN DO
+ CA0 CA1 CA2 PD PDTX PDRX CCM0 CCM1 CCM2 LBEN DI
* 
XD0_noxref VSS VDD diodenwx  AREA=7.17046e-10 perim=0.00024914 sizedup=0
XD1_noxref VSS VDD diodenwx  AREA=7.17046e-10 perim=0.00024914 sizedup=0
XD2_noxref VSS VDD diodenwx  AREA=3.47875e-11 perim=2.36e-05 sizedup=0
XD3_noxref VSS VDD diodenwx  AREA=3.47875e-11 perim=2.36e-05 sizedup=0
XD4_noxref VSS VDD diodenwx  AREA=3.47875e-11 perim=2.36e-05 sizedup=0
XD5_noxref VSS VDD diodenwx  AREA=3.47875e-11 perim=2.36e-05 sizedup=0
XD6_noxref VSS VDD diodenwx  AREA=3.47875e-11 perim=2.36e-05 sizedup=0
XD7_noxref VSS VDD diodenwx  AREA=3.47875e-11 perim=2.36e-05 sizedup=0
XD8_noxref VSS VDD diodenwx  AREA=3.47875e-11 perim=2.36e-05 sizedup=0
XD9_noxref VSS VDD diodenwx  AREA=3.47875e-11 perim=2.36e-05 sizedup=0
XD10_noxref VSS VDD diodenwx  AREA=3.47875e-11 perim=2.36e-05 sizedup=0
XD11_noxref VSS VDD diodenwx  AREA=3.47875e-11 perim=2.36e-05 sizedup=0
XD12_noxref VSS VDD diodenwx  AREA=3.47875e-11 perim=2.36e-05 sizedup=0
XD13_noxref VSS VDD diodenwx  AREA=3.47875e-11 perim=2.36e-05 sizedup=0
XD14_noxref VSS VDD diodenwx  AREA=3.47875e-11 perim=2.36e-05 sizedup=0
XD15_noxref VSS VDD diodenwx  AREA=3.47875e-11 perim=2.36e-05 sizedup=0
XD16_noxref VSS VDD diodenwx  AREA=3.47875e-11 perim=2.36e-05 sizedup=0
XD17_noxref VSS VDD diodenwx  AREA=3.47875e-11 perim=2.36e-05 sizedup=0
XD18_noxref VSS VDD diodenwx  AREA=3.47875e-11 perim=2.36e-05 sizedup=0
XD19_noxref VSS VDD diodenwx  AREA=3.47875e-11 perim=2.36e-05 sizedup=0
XD20_noxref VSS VDD diodenwx  AREA=3.47875e-11 perim=2.36e-05 sizedup=0
XD21_noxref VSS VDD diodenwx  AREA=3.47875e-11 perim=2.36e-05 sizedup=0
XD22_noxref VSS VDD diodenwx  AREA=3.47875e-11 perim=2.36e-05 sizedup=0
XD23_noxref VSS VDD diodenwx  AREA=3.47875e-11 perim=2.36e-05 sizedup=0
XD24_noxref VSS VDD diodenwx  AREA=3.47875e-11 perim=2.36e-05 sizedup=0
XD25_noxref VSS VDD diodenwx  AREA=3.47875e-11 perim=2.36e-05 sizedup=0
XD26_noxref VSS VDD diodenwx  AREA=3.47875e-11 perim=2.36e-05 sizedup=0
XD27_noxref VSS VDD diodenwx  AREA=3.47875e-11 perim=2.36e-05 sizedup=0
XD28_noxref VSS VDD diodenwx  AREA=3.47875e-11 perim=2.36e-05 sizedup=0
XD29_noxref VSS VDD diodenwx  AREA=3.47875e-11 perim=2.36e-05 sizedup=0
XD30_noxref VSS VDD diodenwx  AREA=3.47875e-11 perim=2.36e-05 sizedup=0
XD31_noxref VSS VDD diodenwx  AREA=3.47875e-11 perim=2.36e-05 sizedup=0
XD32_noxref VSS VDD diodenwx  AREA=3.47875e-11 perim=2.36e-05 sizedup=0
XD33_noxref VSS VDD diodenwx  AREA=3.47875e-11 perim=2.36e-05 sizedup=0
XD34_noxref VSS VDD diodenwx  AREA=3.47875e-11 perim=2.36e-05 sizedup=0
XD35_noxref VSS VDD diodenwx  AREA=3.47875e-11 perim=2.36e-05 sizedup=0
XD36_noxref VSS VDD diodenwx  AREA=3.47875e-11 perim=2.36e-05 sizedup=0
XD37_noxref VSS VDD diodenwx  AREA=3.47875e-11 perim=2.36e-05 sizedup=0
XD38_noxref VSS VDD diodenwx  AREA=3.47875e-11 perim=2.36e-05 sizedup=0
XD39_noxref VSS VDD diodenwx  AREA=3.47875e-11 perim=2.36e-05 sizedup=0
XD40_noxref VSS VDD diodenwx  AREA=3.47875e-11 perim=2.36e-05 sizedup=0
XD41_noxref VSS VDD diodenwx  AREA=3.47875e-11 perim=2.36e-05 sizedup=0
XD42_noxref VSS VDD diodenwx  AREA=3.47875e-11 perim=2.36e-05 sizedup=0
XD43_noxref VSS VDD diodenwx  AREA=3.47875e-11 perim=2.36e-05 sizedup=0
XD44_noxref VSS VDD diodenwx  AREA=3.47875e-11 perim=2.36e-05 sizedup=0
XD45_noxref VSS VDD diodenwx  AREA=3.47875e-11 perim=2.36e-05 sizedup=0
XD46_noxref VSS VDD diodenwx  AREA=3.47875e-11 perim=2.36e-05 sizedup=0
XD47_noxref VSS VDD diodenwx  AREA=3.47875e-11 perim=2.36e-05 sizedup=0
XD48_noxref VSS VDD diodenwx  AREA=3.47875e-11 perim=2.36e-05 sizedup=0
XD49_noxref VSS VDD diodenwx  AREA=3.47875e-11 perim=2.36e-05 sizedup=0
XD50_noxref VSS VDD diodenwx  AREA=3.47875e-11 perim=2.36e-05 sizedup=0
XD51_noxref VSS VDD diodenwx  AREA=3.47875e-11 perim=2.36e-05 sizedup=0
XD52_noxref VSS VDD diodenwx  AREA=3.47875e-11 perim=2.36e-05 sizedup=0
XD53_noxref VSS VDD diodenwx  AREA=3.47875e-11 perim=2.36e-05 sizedup=0
XD54_noxref VSS VDD diodenwx  AREA=3.47875e-11 perim=2.36e-05 sizedup=0
XD55_noxref VSS VDD diodenwx  AREA=3.47875e-11 perim=2.36e-05 sizedup=0
XD56_noxref VSS VDD diodenwx  AREA=3.47875e-11 perim=2.36e-05 sizedup=0
XD57_noxref VSS VDD diodenwx  AREA=3.47875e-11 perim=2.36e-05 sizedup=0
XD58_noxref VSS VDD diodenwx  AREA=3.47875e-11 perim=2.36e-05 sizedup=0
XD59_noxref VSS VDD diodenwx  AREA=3.47875e-11 perim=2.36e-05 sizedup=0
XD60_noxref VSS VDD diodenwx  AREA=3.47875e-11 perim=2.36e-05 sizedup=0
XD61_noxref VSS VDD diodenwx  AREA=3.47875e-11 perim=2.36e-05 sizedup=0
XD62_noxref VSS VDD diodenwx  AREA=3.47875e-11 perim=2.36e-05 sizedup=0
XD63_noxref VSS VDD diodenwx  AREA=3.47875e-11 perim=2.36e-05 sizedup=0
XD64_noxref VSS VDD diodenwx  AREA=3.47875e-11 perim=2.36e-05 sizedup=0
XD65_noxref VSS VDD diodenwx  AREA=3.47875e-11 perim=2.36e-05 sizedup=0
XD66_noxref VSS VDD diodenwx  AREA=3.47875e-11 perim=2.36e-05 sizedup=0
XD67_noxref VSS VDD diodenwx  AREA=3.47875e-11 perim=2.36e-05 sizedup=0
XD68_noxref VSS VDD diodenwx  AREA=3.47875e-11 perim=2.36e-05 sizedup=0
XD69_noxref VSS VDD diodenwx  AREA=3.47875e-11 perim=2.36e-05 sizedup=0
XD70_noxref VSS VDD diodenwx  AREA=3.47875e-11 perim=2.36e-05 sizedup=0
XD71_noxref VSS VDD diodenwx  AREA=3.47875e-11 perim=2.36e-05 sizedup=0
XD72_noxref VSS VDD diodenwx  AREA=3.47875e-11 perim=2.36e-05 sizedup=0
XD73_noxref VSS VDD diodenwx  AREA=3.47875e-11 perim=2.36e-05 sizedup=0
XD74_noxref VSS VDD diodenwx  AREA=3.47875e-11 perim=2.36e-05 sizedup=0
XD75_noxref VSS VDD diodenwx  AREA=3.47875e-11 perim=2.36e-05 sizedup=0
XD76_noxref VSS VDD diodenwx  AREA=3.47875e-11 perim=2.36e-05 sizedup=0
XD77_noxref VSS VDD diodenwx  AREA=3.47875e-11 perim=2.36e-05 sizedup=0
XD78_noxref VSS VDD diodenwx  AREA=3.47875e-11 perim=2.36e-05 sizedup=0
XD79_noxref VSS VDD diodenwx  AREA=3.47875e-11 perim=2.36e-05 sizedup=0
XD80_noxref VSS VDD diodenwx  AREA=3.47875e-11 perim=2.36e-05 sizedup=0
XD81_noxref VSS VDD diodenwx  AREA=3.47875e-11 perim=2.36e-05 sizedup=0
XD82_noxref VSS VDD diodenwx  AREA=3.47875e-11 perim=2.36e-05 sizedup=0
XD83_noxref VSS VDD diodenwx  AREA=3.47875e-11 perim=2.36e-05 sizedup=0
XD84_noxref VSS VDD diodenwx  AREA=3.47875e-11 perim=2.36e-05 sizedup=0
XD85_noxref VSS VDD diodenwx  AREA=3.47875e-11 perim=2.36e-05 sizedup=0
XD86_noxref VSS VDD diodenwx  AREA=3.47875e-11 perim=2.36e-05 sizedup=0
XD87_noxref VSS VDD diodenwx  AREA=3.47875e-11 perim=2.36e-05 sizedup=0
XD88_noxref VSS VDD diodenwx  AREA=3.47875e-11 perim=2.36e-05 sizedup=0
XD89_noxref VSS VDD diodenwx  AREA=3.47875e-11 perim=2.36e-05 sizedup=0
XD90_noxref VSS VDD diodenwx  AREA=3.47875e-11 perim=2.36e-05 sizedup=0
XD91_noxref VSS VDD diodenwx  AREA=3.47875e-11 perim=2.36e-05 sizedup=0
XD92_noxref VSS VDD diodenwx  AREA=3.47875e-11 perim=2.36e-05 sizedup=0
XD93_noxref VSS VDD diodenwx  AREA=3.47875e-11 perim=2.36e-05 sizedup=0
XD94_noxref VSS VDD diodenwx  AREA=3.47875e-11 perim=2.36e-05 sizedup=0
XD95_noxref VSS VDD diodenwx  AREA=3.47875e-11 perim=2.36e-05 sizedup=0
XD96_noxref VSS VDD diodenwx  AREA=3.47875e-11 perim=2.36e-05 sizedup=0
XD97_noxref VSS VDD diodenwx  AREA=3.47875e-11 perim=2.36e-05 sizedup=0
XD98_noxref VSS VDD diodenwx  AREA=3.47875e-11 perim=2.36e-05 sizedup=0
XD99_noxref VSS VDD diodenwx  AREA=3.47875e-11 perim=2.36e-05 sizedup=0
XD100_noxref VSS VDD diodenwx  AREA=3.47875e-11 perim=2.36e-05 sizedup=0
XD101_noxref VSS VDD diodenwx  AREA=3.47875e-11 perim=2.36e-05 sizedup=0
XD102_noxref VSS VDD diodenwx  AREA=3.47875e-11 perim=2.36e-05 sizedup=0
XD103_noxref VSS VDD diodenwx  AREA=3.47875e-11 perim=2.36e-05 sizedup=0
XD104_noxref VSS VDD diodenwx  AREA=3.47875e-11 perim=2.36e-05 sizedup=0
XD105_noxref VSS VDD diodenwx  AREA=3.47875e-11 perim=2.36e-05 sizedup=0
XD106_noxref VSS VDD diodenwx  AREA=3.47875e-11 perim=2.36e-05 sizedup=0
XD107_noxref VSS VDD diodenwx  AREA=3.47875e-11 perim=2.36e-05 sizedup=0
XD108_noxref VSS VDD diodenwx  AREA=3.47875e-11 perim=2.36e-05 sizedup=0
XD109_noxref VSS VDD diodenwx  AREA=3.47875e-11 perim=2.36e-05 sizedup=0
XD110_noxref VSS VDD diodenwx  AREA=3.47875e-11 perim=2.36e-05 sizedup=0
XD111_noxref VSS VDD diodenwx  AREA=3.47875e-11 perim=2.36e-05 sizedup=0
XD112_noxref VSS VDD diodenwx  AREA=3.47875e-11 perim=2.36e-05 sizedup=0
XD113_noxref VSS VDD diodenwx  AREA=3.47875e-11 perim=2.36e-05 sizedup=0
XD114_noxref VSS VDD diodenwx  AREA=3.47875e-11 perim=2.36e-05 sizedup=0
XD115_noxref VSS VDD diodenwx  AREA=3.47875e-11 perim=2.36e-05 sizedup=0
XD116_noxref VSS VDD diodenwx  AREA=3.47875e-11 perim=2.36e-05 sizedup=0
XD117_noxref VSS VDD diodenwx  AREA=3.47875e-11 perim=2.36e-05 sizedup=0
XD118_noxref VSS VDD diodenwx  AREA=3.47875e-11 perim=2.36e-05 sizedup=0
XD119_noxref VSS VDD diodenwx  AREA=3.24095e-11 perim=2.332e-05 sizedup=0
XD120_noxref VSS VDD diodenwx  AREA=9.97645e-11 perim=4.508e-05 sizedup=0
XD121_noxref VSS VDD diodenwx  AREA=1.32253e-10 perim=5.582e-05 sizedup=0
XD122_noxref VSS VDD diodenwx  AREA=1.32253e-10 perim=5.582e-05 sizedup=0
XD123_noxref VSS VDD diodenwx  AREA=1.32253e-10 perim=5.582e-05 sizedup=0
XD124_noxref VSS VDD diodenwx  AREA=1.32253e-10 perim=5.582e-05 sizedup=0
XD125_noxref VSS VDD diodenwx  AREA=1.64741e-10 perim=6.656e-05 sizedup=0
XD126_noxref VSS VDD diodenwx  AREA=1.64741e-10 perim=6.656e-05 sizedup=0
XD127_noxref VSS VDDHA_RX diodenwx  AREA=2.03805e-09 perim=0.00019521 sizedup=0
XD128_noxref VSS VDD diodenwx  AREA=1.64741e-10 perim=6.656e-05 sizedup=0
XD129_noxref VSS VDD diodenwx  AREA=1.64741e-10 perim=6.656e-05 sizedup=0
XD130_noxref VSS VDD diodenwx  AREA=4.56213e-10 perim=9.982e-05 sizedup=0
XD131_noxref VSS VDD diodenwx  AREA=1.64741e-10 perim=6.656e-05 sizedup=0
XD132_noxref VSS VDD diodenwx  AREA=1.64741e-10 perim=6.656e-05 sizedup=0
XD133_noxref VSS VDD diodenwx  AREA=1.64741e-10 perim=6.656e-05 sizedup=0
XD134_noxref VSS VDD diodenwx  AREA=1.64741e-10 perim=6.656e-05 sizedup=0
XD135_noxref VSS VDDHA_RX diodenwx  AREA=2.5624e-09 perim=0.00026291 sizedup=0
XD136_noxref VSS VDD diodenwx  AREA=1.64741e-10 perim=6.656e-05 sizedup=0
XD137_noxref VSS VDD diodenwx  AREA=4.56213e-10 perim=9.982e-05 sizedup=0
XD138_noxref VSS VDDHA_RX diodenwx  AREA=2.29718e-10 perim=8.804e-05 sizedup=0
XD139_noxref VSS VDD diodenwx  AREA=3.7486e-10 perim=0.00011266 sizedup=0
XD140_noxref VSS VDDHA_RX diodenwx  AREA=3.01127e-10 perim=0.00011624 sizedup=0
XD141_noxref VSS VDDHA_RX diodenwx  AREA=2.29718e-10 perim=8.804e-05 sizedup=0
XD142_noxref VSS VDD diodenwx  AREA=9.97645e-11 perim=4.508e-05 sizedup=0
XD143_noxref VSS VDDHA_RX diodenwx  AREA=3.3442e-10 perim=0.00012782 sizedup=0
XD144_noxref VSS VDDHA_RX diodenwx  AREA=3.3442e-10 perim=0.00012782 sizedup=0
XD145_noxref VSS VDDHA_RX diodenwx  AREA=3.3442e-10 perim=0.00012782 sizedup=0
XD146_noxref VSS VDDHA_RX diodenwx  AREA=3.3442e-10 perim=0.00012782 sizedup=0
XD147_noxref VSS VDDHA_RX diodenwx  AREA=3.3442e-10 perim=0.00012782 sizedup=0
XD148_noxref VSS VDDHA_RX diodenwx  AREA=3.3442e-10 perim=0.00012782 sizedup=0
XD149_noxref VSS VDDHA_RX diodenwx  AREA=3.3442e-10 perim=0.00012782 sizedup=0
XD150_noxref VSS VDDHA_RX diodenwx  AREA=3.3442e-10 perim=0.00012782 sizedup=0
XD151_noxref VSS VDDHA_RX diodenwx  AREA=3.3442e-10 perim=0.00012782 sizedup=0
XD152_noxref VSS VDDHA_RX diodenwx  AREA=2.29718e-10 perim=8.804e-05 sizedup=0
XD153_noxref VSS VDD diodenwx  AREA=1.64372e-11 perim=1.641e-05 sizedup=0
XD154_noxref VSS VDDHA_RX diodenwx  AREA=1.9723e-10 perim=7.73e-05 sizedup=0
XD155_noxref VSS VDD diodenwx  AREA=1.64741e-10 perim=6.656e-05 sizedup=0
XD156_noxref VSS VDDHA_RX diodenwx  AREA=1.9723e-10 perim=7.73e-05 sizedup=0
XD157_noxref VSS VDD diodenwx  AREA=1.64741e-10 perim=6.656e-05 sizedup=0
XD158_noxref VSS VDDHA_RX diodenwx  AREA=1.9723e-10 perim=7.73e-05 sizedup=0
XD159_noxref VSS VDD diodenwx  AREA=1.64741e-10 perim=6.656e-05 sizedup=0
XD160_noxref VSS VDDHA_RX diodenwx  AREA=1.9723e-10 perim=7.73e-05 sizedup=0
XD161_noxref VSS VDD diodenwx  AREA=1.64741e-10 perim=6.656e-05 sizedup=0
XD162_noxref VSS VDDHA_RX diodenwx  AREA=1.9723e-10 perim=7.73e-05 sizedup=0
XD163_noxref VSS VDD diodenwx  AREA=1.64741e-10 perim=6.656e-05 sizedup=0
XD164_noxref VSS VDDHA_RX diodenwx  AREA=1.9723e-10 perim=7.73e-05 sizedup=0
XD165_noxref VSS VDD diodenwx  AREA=1.64741e-10 perim=6.656e-05 sizedup=0
XD166_noxref VSS VDDHA_RX diodenwx  AREA=1.9723e-10 perim=7.73e-05 sizedup=0
XD167_noxref VSS VDD diodenwx  AREA=1.64741e-10 perim=6.656e-05 sizedup=0
XD168_noxref VSS VDDHA_RX diodenwx  AREA=1.9723e-10 perim=7.73e-05 sizedup=0
XD169_noxref VSS VDD diodenwx  AREA=1.64741e-10 perim=6.656e-05 sizedup=0
XD170_noxref VSS VDDHA_RX diodenwx  AREA=1.9723e-10 perim=7.73e-05 sizedup=0
XD171_noxref VSS VDD diodenwx  AREA=1.64741e-10 perim=6.656e-05 sizedup=0
XD172_noxref VSS VDDHA_RX diodenwx  AREA=1.9723e-10 perim=7.73e-05 sizedup=0
XD173_noxref VSS VDD diodenwx  AREA=1.64741e-10 perim=6.656e-05 sizedup=0
XD174_noxref VSS VDDHA_RX diodenwx  AREA=1.9723e-10 perim=7.73e-05 sizedup=0
XD175_noxref VSS VDD diodenwx  AREA=1.64741e-10 perim=6.656e-05 sizedup=0
XD176_noxref VSS VDDHA_RX diodenwx  AREA=1.9723e-10 perim=7.73e-05 sizedup=0
XD177_noxref VSS VDD diodenwx  AREA=1.64741e-10 perim=6.656e-05 sizedup=0
XD178_noxref VSS VDDHA_RX diodenwx  AREA=2.29718e-10 perim=8.804e-05 sizedup=0
XD179_noxref VSS VDD diodenwx  AREA=1.64741e-10 perim=6.656e-05 sizedup=0
XD180_noxref VSS VDDHA_RX diodenwx  AREA=2.29718e-10 perim=8.804e-05 sizedup=0
XD181_noxref VSS VDD diodenwx  AREA=1.64741e-10 perim=6.656e-05 sizedup=0
XD182_noxref VSS VDDHA_TX diodenwx  AREA=4.6915e-09 perim=0.00044427 sizedup=0
XD183_noxref VSS VDDHA_RX diodenwx  AREA=2.29718e-10 perim=8.804e-05 sizedup=0
XD184_noxref VSS VDD diodenwx  AREA=1.64741e-10 perim=6.656e-05 sizedup=0
XD185_noxref VSS VDDHA_RX diodenwx  AREA=2.29718e-10 perim=8.804e-05 sizedup=0
XD186_noxref VSS VDD diodenwx  AREA=9.97645e-11 perim=4.508e-05 sizedup=0
XD187_noxref VSS VDD diodenwx  AREA=1.64741e-10 perim=6.656e-05 sizedup=0
XD188_noxref VSS VDD diodenwx  AREA=1.64741e-10 perim=6.656e-05 sizedup=0
XD189_noxref VSS VDD diodenwx  AREA=1.64741e-10 perim=6.656e-05 sizedup=0
XD190_noxref VSS VDD diodenwx  AREA=1.64741e-10 perim=6.656e-05 sizedup=0
XD191_noxref VSS VDD diodenwx  AREA=1.64741e-10 perim=6.656e-05 sizedup=0
XD192_noxref VSS VDD diodenwx  AREA=1.64741e-10 perim=6.656e-05 sizedup=0
XD193_noxref VSS VDD diodenwx  AREA=1.64741e-10 perim=6.656e-05 sizedup=0
XD194_noxref VSS VDD diodenwx  AREA=1.64741e-10 perim=6.656e-05 sizedup=0
XD195_noxref VSS VDD diodenwx  AREA=1.64741e-10 perim=6.656e-05 sizedup=0
XD196_noxref VSS VDD diodenwx  AREA=1.64741e-10 perim=6.656e-05 sizedup=0
XD197_noxref VSS VDD diodenwx  AREA=1.64741e-10 perim=6.656e-05 sizedup=0
XD198_noxref VSS VDD diodenwx  AREA=1.64741e-10 perim=6.656e-05 sizedup=0
XD199_noxref VSS VSSA_TX diodenwx  AREA=2.78358e-09 perim=0.00024351 sizedup=0
XD200_noxref VSS VDD diodenwx  AREA=1.64741e-10 perim=6.656e-05 sizedup=0
XD201_noxref VSS VDD diodenwx  AREA=1.64741e-10 perim=6.656e-05 sizedup=0
XD202_noxref VSS VDD diodenwx  AREA=1.64741e-10 perim=6.656e-05 sizedup=0
XD203_noxref VSS VDD diodenwx  AREA=1.64741e-10 perim=6.656e-05 sizedup=0
XD204_noxref VSS VDD diodenwx  AREA=1.64741e-10 perim=6.656e-05 sizedup=0
XD205_noxref VSS VDD diodenwx  AREA=1.64741e-10 perim=6.656e-05 sizedup=0
XD206_noxref VSS VDD diodenwx  AREA=1.64741e-10 perim=6.656e-05 sizedup=0
XD207_noxref VSS VDD diodenwx  AREA=1.64741e-10 perim=6.656e-05 sizedup=0
XD208_noxref VSS VDD diodenwx  AREA=1.64741e-10 perim=6.656e-05 sizedup=0
XD209_noxref VSS VDD diodenwx  AREA=1.64741e-10 perim=6.656e-05 sizedup=0
XD210_noxref VSS VDD diodenwx  AREA=1.64741e-10 perim=6.656e-05 sizedup=0
XD211_noxref VSS VDD diodenwx  AREA=1.64741e-10 perim=6.656e-05 sizedup=0
XD212_noxref VSS VDD diodenwx  AREA=1.64741e-10 perim=6.656e-05 sizedup=0
XD213_noxref VSS VDD diodenwx  AREA=1.64741e-10 perim=6.656e-05 sizedup=0
XD214_noxref VSS VDD diodenwx  AREA=1.64741e-10 perim=6.656e-05 sizedup=0
XD215_noxref VSS VDDHA_TX diodenwx  AREA=2.57441e-08 perim=0.00067856 sizedup=0
XMDC0 VDD VSS VDD VDD pfet L=5e-06 W=5e-06 AD=5.25e-13 AS=5.25e-13 PD=1.021e-05
+ PS=1.021e-05 M=1 sca=4.30942 scb=0.00379615 scc=0.000194942 lpccnr=4.504e-06
+ covpccnr=0 wrxcnr=4.5e-06 sa=1.05e-07 sb=1.05e-07 sd=0 ptwell=0 ngcon=2 nf=1
+ plorient=1 p_la=0 par=1 pccrit=0 sizedup=0 pre_layout_local=0
XMDC0@775 VDD VSS VDD VDD pfet L=5e-06 W=5e-06 AD=5.25e-13 AS=5.25e-13
+ PD=1.021e-05 PS=1.021e-05 M=1 sca=4.30942 scb=0.00379615 scc=0.000194942
+ lpccnr=4.504e-06 covpccnr=0 wrxcnr=4.5e-06 sa=1.05e-07 sb=1.05e-07 sd=0
+ ptwell=0 ngcon=2 nf=1 plorient=1 p_la=0 par=1 pccrit=0 sizedup=0
+ pre_layout_local=0
XMDC0@774 VDD VSS VDD VDD pfet L=5e-06 W=5e-06 AD=5.25e-13 AS=5.25e-13
+ PD=1.021e-05 PS=1.021e-05 M=1 sca=4.30942 scb=0.00379615 scc=0.000194942
+ lpccnr=4.504e-06 covpccnr=0 wrxcnr=4.5e-06 sa=1.05e-07 sb=1.05e-07 sd=0
+ ptwell=0 ngcon=2 nf=1 plorient=1 p_la=0 par=1 pccrit=0 sizedup=0
+ pre_layout_local=0
XMDC0@773 VDD VSS VDD VDD pfet L=5e-06 W=5e-06 AD=5.25e-13 AS=5.25e-13
+ PD=1.021e-05 PS=1.021e-05 M=1 sca=4.30942 scb=0.00379615 scc=0.000194942
+ lpccnr=4.504e-06 covpccnr=0 wrxcnr=4.5e-06 sa=1.05e-07 sb=1.05e-07 sd=0
+ ptwell=0 ngcon=2 nf=1 plorient=1 p_la=0 par=1 pccrit=0 sizedup=0
+ pre_layout_local=0
XMDC2 VDDHA_RX VSSA_RX VDDHA_RX VDDHA_RX pfet L=5e-06 W=5e-06 AD=5.25e-13
+ AS=5.25e-13 PD=1.021e-05 PS=1.021e-05 M=1 sca=7.41019 scb=0.00658528
+ scc=0.000443878 lpccnr=4.504e-06 covpccnr=0 wrxcnr=4.5e-06 sa=1.05e-07
+ sb=1.05e-07 sd=0 ptwell=0 ngcon=2 nf=1 plorient=1 p_la=0 par=1 pccrit=0
+ sizedup=0 pre_layout_local=0
XMDC2@121 VDDHA_RX VSSA_RX VDDHA_RX VDDHA_RX pfet L=5e-06 W=5e-06 AD=5.25e-13
+ AS=5.25e-13 PD=1.021e-05 PS=1.021e-05 M=1 sca=7.41019 scb=0.00658528
+ scc=0.000443878 lpccnr=4.504e-06 covpccnr=0 wrxcnr=4.5e-06 sa=1.05e-07
+ sb=1.05e-07 sd=0 ptwell=0 ngcon=2 nf=1 plorient=1 p_la=0 par=1 pccrit=0
+ sizedup=0 pre_layout_local=0
XMDC2@120 VDDHA_RX VSSA_RX VDDHA_RX VDDHA_RX pfet L=5e-06 W=5e-06 AD=5.25e-13
+ AS=5.25e-13 PD=1.021e-05 PS=1.021e-05 M=1 sca=7.41019 scb=0.00658528
+ scc=0.000443878 lpccnr=4.504e-06 covpccnr=0 wrxcnr=4.5e-06 sa=1.05e-07
+ sb=1.05e-07 sd=0 ptwell=0 ngcon=2 nf=1 plorient=1 p_la=0 par=1 pccrit=0
+ sizedup=0 pre_layout_local=0
XMDC2@119 VDDHA_RX VSSA_RX VDDHA_RX VDDHA_RX pfet L=5e-06 W=5e-06 AD=5.25e-13
+ AS=5.25e-13 PD=1.021e-05 PS=1.021e-05 M=1 sca=7.41019 scb=0.00658528
+ scc=0.000443878 lpccnr=4.504e-06 covpccnr=0 wrxcnr=4.5e-06 sa=1.05e-07
+ sb=1.05e-07 sd=0 ptwell=0 ngcon=2 nf=1 plorient=1 p_la=0 par=1 pccrit=0
+ sizedup=0 pre_layout_local=0
XX232/D0_noxref VSS VDD diodenwx  AREA=9.97645e-11 perim=4.508e-05 sizedup=0
XX232/D1_noxref VSS VDD diodenwx  AREA=9.97645e-11 perim=4.508e-05 sizedup=0
XMDC0@772 VDD VSS VDD VDD pfet L=5e-06 W=5e-06 AD=5.25e-13 AS=5.25e-13
+ PD=1.021e-05 PS=1.021e-05 M=1 sca=7.41019 scb=0.00658528 scc=0.000443878
+ lpccnr=4.504e-06 covpccnr=0 wrxcnr=4.5e-06 sa=1.05e-07 sb=1.05e-07 sd=0
+ ptwell=0 ngcon=2 nf=1 plorient=1 p_la=0 par=1 pccrit=0 sizedup=0
+ pre_layout_local=0
XMDC0@771 VDD VSS VDD VDD pfet L=5e-06 W=5e-06 AD=5.25e-13 AS=5.25e-13
+ PD=1.021e-05 PS=1.021e-05 M=1 sca=7.41019 scb=0.00658528 scc=0.000443878
+ lpccnr=4.504e-06 covpccnr=0 wrxcnr=4.5e-06 sa=1.05e-07 sb=1.05e-07 sd=0
+ ptwell=0 ngcon=2 nf=1 plorient=1 p_la=0 par=1 pccrit=0 sizedup=0
+ pre_layout_local=0
XMDC0@770 VDD VSS VDD VDD pfet L=5e-06 W=5e-06 AD=5.25e-13 AS=5.25e-13
+ PD=1.021e-05 PS=1.021e-05 M=1 sca=4.30942 scb=0.00379615 scc=0.000194942
+ lpccnr=4.504e-06 covpccnr=0 wrxcnr=4.5e-06 sa=1.05e-07 sb=1.05e-07 sd=0
+ ptwell=0 ngcon=2 nf=1 plorient=1 p_la=0 par=1 pccrit=0 sizedup=0
+ pre_layout_local=0
XMDC0@769 VDD VSS VDD VDD pfet L=5e-06 W=5e-06 AD=5.25e-13 AS=5.25e-13
+ PD=1.021e-05 PS=1.021e-05 M=1 sca=7.41019 scb=0.00658528 scc=0.000443878
+ lpccnr=4.504e-06 covpccnr=0 wrxcnr=4.5e-06 sa=1.05e-07 sb=1.05e-07 sd=0
+ ptwell=0 ngcon=2 nf=1 plorient=1 p_la=0 par=1 pccrit=0 sizedup=0
+ pre_layout_local=0
XMDC0@768 VDD VSS VDD VDD pfet L=5e-06 W=5e-06 AD=5.25e-13 AS=5.25e-13
+ PD=1.021e-05 PS=1.021e-05 M=1 sca=4.30942 scb=0.00379615 scc=0.000194942
+ lpccnr=4.504e-06 covpccnr=0 wrxcnr=4.5e-06 sa=1.05e-07 sb=1.05e-07 sd=0
+ ptwell=0 ngcon=2 nf=1 plorient=1 p_la=0 par=1 pccrit=0 sizedup=0
+ pre_layout_local=0
XMDC0@767 VDD VSS VDD VDD pfet L=5e-06 W=5e-06 AD=5.25e-13 AS=5.25e-13
+ PD=1.021e-05 PS=1.021e-05 M=1 sca=7.41019 scb=0.00658528 scc=0.000443878
+ lpccnr=4.504e-06 covpccnr=0 wrxcnr=4.5e-06 sa=1.05e-07 sb=1.05e-07 sd=0
+ ptwell=0 ngcon=2 nf=1 plorient=1 p_la=0 par=1 pccrit=0 sizedup=0
+ pre_layout_local=0
XMDC0@766 VDD VSS VDD VDD pfet L=5e-06 W=5e-06 AD=5.25e-13 AS=5.25e-13
+ PD=1.021e-05 PS=1.021e-05 M=1 sca=4.30942 scb=0.00379615 scc=0.000194942
+ lpccnr=4.504e-06 covpccnr=0 wrxcnr=4.5e-06 sa=1.05e-07 sb=1.05e-07 sd=0
+ ptwell=0 ngcon=2 nf=1 plorient=1 p_la=0 par=1 pccrit=0 sizedup=0
+ pre_layout_local=0
XMDC0@765 VDD VSS VDD VDD pfet L=5e-06 W=5e-06 AD=5.25e-13 AS=5.25e-13
+ PD=1.021e-05 PS=1.021e-05 M=1 sca=7.41019 scb=0.00658528 scc=0.000443878
+ lpccnr=4.504e-06 covpccnr=0 wrxcnr=4.5e-06 sa=1.05e-07 sb=1.05e-07 sd=0
+ ptwell=0 ngcon=2 nf=1 plorient=1 p_la=0 par=1 pccrit=0 sizedup=0
+ pre_layout_local=0
XMDC0@764 VDD VSS VDD VDD pfet L=5e-06 W=5e-06 AD=5.25e-13 AS=5.25e-13
+ PD=1.021e-05 PS=1.021e-05 M=1 sca=4.30942 scb=0.00379615 scc=0.000194942
+ lpccnr=4.504e-06 covpccnr=0 wrxcnr=4.5e-06 sa=1.05e-07 sb=1.05e-07 sd=0
+ ptwell=0 ngcon=2 nf=1 plorient=1 p_la=0 par=1 pccrit=0 sizedup=0
+ pre_layout_local=0
XMDC0@763 VDD VSS VDD VDD pfet L=5e-06 W=5e-06 AD=5.25e-13 AS=5.25e-13
+ PD=1.021e-05 PS=1.021e-05 M=1 sca=7.41019 scb=0.00658528 scc=0.000443878
+ lpccnr=4.504e-06 covpccnr=0 wrxcnr=4.5e-06 sa=1.05e-07 sb=1.05e-07 sd=0
+ ptwell=0 ngcon=2 nf=1 plorient=1 p_la=0 par=1 pccrit=0 sizedup=0
+ pre_layout_local=0
XMDC0@762 VDD VSS VDD VDD pfet L=5e-06 W=5e-06 AD=5.25e-13 AS=5.25e-13
+ PD=1.021e-05 PS=1.021e-05 M=1 sca=4.30942 scb=0.00379615 scc=0.000194942
+ lpccnr=4.504e-06 covpccnr=0 wrxcnr=4.5e-06 sa=1.05e-07 sb=1.05e-07 sd=0
+ ptwell=0 ngcon=2 nf=1 plorient=1 p_la=0 par=1 pccrit=0 sizedup=0
+ pre_layout_local=0
XMDC0@761 VDD VSS VDD VDD pfet L=5e-06 W=5e-06 AD=5.25e-13 AS=5.25e-13
+ PD=1.021e-05 PS=1.021e-05 M=1 sca=7.41019 scb=0.00658528 scc=0.000443878
+ lpccnr=4.504e-06 covpccnr=0 wrxcnr=4.5e-06 sa=1.05e-07 sb=1.05e-07 sd=0
+ ptwell=0 ngcon=2 nf=1 plorient=1 p_la=0 par=1 pccrit=0 sizedup=0
+ pre_layout_local=0
XMDC0@760 VDD VSS VDD VDD pfet L=5e-06 W=5e-06 AD=5.25e-13 AS=5.25e-13
+ PD=1.021e-05 PS=1.021e-05 M=1 sca=4.30942 scb=0.00379615 scc=0.000194942
+ lpccnr=4.504e-06 covpccnr=0 wrxcnr=4.5e-06 sa=1.05e-07 sb=1.05e-07 sd=0
+ ptwell=0 ngcon=2 nf=1 plorient=1 p_la=0 par=1 pccrit=0 sizedup=0
+ pre_layout_local=0
XMDC0@759 VDD VSS VDD VDD pfet L=5e-06 W=5e-06 AD=5.25e-13 AS=5.25e-13
+ PD=1.021e-05 PS=1.021e-05 M=1 sca=7.41019 scb=0.00658528 scc=0.000443878
+ lpccnr=4.504e-06 covpccnr=0 wrxcnr=4.5e-06 sa=1.05e-07 sb=1.05e-07 sd=0
+ ptwell=0 ngcon=2 nf=1 plorient=1 p_la=0 par=1 pccrit=0 sizedup=0
+ pre_layout_local=0
XMDC0@758 VDD VSS VDD VDD pfet L=5e-06 W=5e-06 AD=5.25e-13 AS=5.25e-13
+ PD=1.021e-05 PS=1.021e-05 M=1 sca=4.30942 scb=0.00379615 scc=0.000194942
+ lpccnr=4.504e-06 covpccnr=0 wrxcnr=4.5e-06 sa=1.05e-07 sb=1.05e-07 sd=0
+ ptwell=0 ngcon=2 nf=1 plorient=1 p_la=0 par=1 pccrit=0 sizedup=0
+ pre_layout_local=0
XMDC0@757 VDD VSS VDD VDD pfet L=5e-06 W=5e-06 AD=5.25e-13 AS=5.25e-13
+ PD=1.021e-05 PS=1.021e-05 M=1 sca=7.41019 scb=0.00658528 scc=0.000443878
+ lpccnr=4.504e-06 covpccnr=0 wrxcnr=4.5e-06 sa=1.05e-07 sb=1.05e-07 sd=0
+ ptwell=0 ngcon=2 nf=1 plorient=1 p_la=0 par=1 pccrit=0 sizedup=0
+ pre_layout_local=0
XMDC0@756 VDD VSS VDD VDD pfet L=5e-06 W=5e-06 AD=5.25e-13 AS=5.25e-13
+ PD=1.021e-05 PS=1.021e-05 M=1 sca=4.30942 scb=0.00379615 scc=0.000194942
+ lpccnr=4.504e-06 covpccnr=0 wrxcnr=4.5e-06 sa=1.05e-07 sb=1.05e-07 sd=0
+ ptwell=0 ngcon=2 nf=1 plorient=1 p_la=0 par=1 pccrit=0 sizedup=0
+ pre_layout_local=0
XMDC0@755 VDD VSS VDD VDD pfet L=5e-06 W=5e-06 AD=5.25e-13 AS=5.25e-13
+ PD=1.021e-05 PS=1.021e-05 M=1 sca=7.41019 scb=0.00658528 scc=0.000443878
+ lpccnr=4.504e-06 covpccnr=0 wrxcnr=4.5e-06 sa=1.05e-07 sb=1.05e-07 sd=0
+ ptwell=0 ngcon=2 nf=1 plorient=1 p_la=0 par=1 pccrit=0 sizedup=0
+ pre_layout_local=0
XMDC0@754 VDD VSS VDD VDD pfet L=5e-06 W=5e-06 AD=5.25e-13 AS=5.25e-13
+ PD=1.021e-05 PS=1.021e-05 M=1 sca=4.30942 scb=0.00379615 scc=0.000194942
+ lpccnr=4.504e-06 covpccnr=0 wrxcnr=4.5e-06 sa=1.05e-07 sb=1.05e-07 sd=0
+ ptwell=0 ngcon=2 nf=1 plorient=1 p_la=0 par=1 pccrit=0 sizedup=0
+ pre_layout_local=0
XMDC0@753 VDD VSS VDD VDD pfet L=5e-06 W=5e-06 AD=5.25e-13 AS=5.25e-13
+ PD=1.021e-05 PS=1.021e-05 M=1 sca=7.41019 scb=0.00658528 scc=0.000443878
+ lpccnr=4.504e-06 covpccnr=0 wrxcnr=4.5e-06 sa=1.05e-07 sb=1.05e-07 sd=0
+ ptwell=0 ngcon=2 nf=1 plorient=1 p_la=0 par=1 pccrit=0 sizedup=0
+ pre_layout_local=0
XMDC0@752 VDD VSS VDD VDD pfet L=5e-06 W=5e-06 AD=5.25e-13 AS=5.25e-13
+ PD=1.021e-05 PS=1.021e-05 M=1 sca=4.30942 scb=0.00379615 scc=0.000194942
+ lpccnr=4.504e-06 covpccnr=0 wrxcnr=4.5e-06 sa=1.05e-07 sb=1.05e-07 sd=0
+ ptwell=0 ngcon=2 nf=1 plorient=1 p_la=0 par=1 pccrit=0 sizedup=0
+ pre_layout_local=0
XMDC0@751 VDD VSS VDD VDD pfet L=5e-06 W=5e-06 AD=5.25e-13 AS=5.25e-13
+ PD=1.021e-05 PS=1.021e-05 M=1 sca=7.41019 scb=0.00658528 scc=0.000443878
+ lpccnr=4.504e-06 covpccnr=0 wrxcnr=4.5e-06 sa=1.05e-07 sb=1.05e-07 sd=0
+ ptwell=0 ngcon=2 nf=1 plorient=1 p_la=0 par=1 pccrit=0 sizedup=0
+ pre_layout_local=0
XMDC0@750 VDD VSS VDD VDD pfet L=5e-06 W=5e-06 AD=5.25e-13 AS=5.25e-13
+ PD=1.021e-05 PS=1.021e-05 M=1 sca=4.30942 scb=0.00379615 scc=0.000194942
+ lpccnr=4.504e-06 covpccnr=0 wrxcnr=4.5e-06 sa=1.05e-07 sb=1.05e-07 sd=0
+ ptwell=0 ngcon=2 nf=1 plorient=1 p_la=0 par=1 pccrit=0 sizedup=0
+ pre_layout_local=0
XMDC0@749 VDD VSS VDD VDD pfet L=5e-06 W=5e-06 AD=5.25e-13 AS=5.25e-13
+ PD=1.021e-05 PS=1.021e-05 M=1 sca=7.41019 scb=0.00658528 scc=0.000443878
+ lpccnr=4.504e-06 covpccnr=0 wrxcnr=4.5e-06 sa=1.05e-07 sb=1.05e-07 sd=0
+ ptwell=0 ngcon=2 nf=1 plorient=1 p_la=0 par=1 pccrit=0 sizedup=0
+ pre_layout_local=0
XMDC0@748 VDD VSS VDD VDD pfet L=5e-06 W=5e-06 AD=5.25e-13 AS=5.25e-13
+ PD=1.021e-05 PS=1.021e-05 M=1 sca=4.30942 scb=0.00379615 scc=0.000194942
+ lpccnr=4.504e-06 covpccnr=0 wrxcnr=4.5e-06 sa=1.05e-07 sb=1.05e-07 sd=0
+ ptwell=0 ngcon=2 nf=1 plorient=1 p_la=0 par=1 pccrit=0 sizedup=0
+ pre_layout_local=0
XMDC0@747 VDD VSS VDD VDD pfet L=5e-06 W=5e-06 AD=5.25e-13 AS=5.25e-13
+ PD=1.021e-05 PS=1.021e-05 M=1 sca=7.41019 scb=0.00658528 scc=0.000443878
+ lpccnr=4.504e-06 covpccnr=0 wrxcnr=4.5e-06 sa=1.05e-07 sb=1.05e-07 sd=0
+ ptwell=0 ngcon=2 nf=1 plorient=1 p_la=0 par=1 pccrit=0 sizedup=0
+ pre_layout_local=0
XMDC0@746 VDD VSS VDD VDD pfet L=5e-06 W=5e-06 AD=5.25e-13 AS=5.25e-13
+ PD=1.021e-05 PS=1.021e-05 M=1 sca=4.30942 scb=0.00379615 scc=0.000194942
+ lpccnr=4.504e-06 covpccnr=0 wrxcnr=4.5e-06 sa=1.05e-07 sb=1.05e-07 sd=0
+ ptwell=0 ngcon=2 nf=1 plorient=1 p_la=0 par=1 pccrit=0 sizedup=0
+ pre_layout_local=0
XMDC0@745 VDD VSS VDD VDD pfet L=5e-06 W=5e-06 AD=5.25e-13 AS=5.25e-13
+ PD=1.021e-05 PS=1.021e-05 M=1 sca=7.41019 scb=0.00658528 scc=0.000443878
+ lpccnr=4.504e-06 covpccnr=0 wrxcnr=4.5e-06 sa=1.05e-07 sb=1.05e-07 sd=0
+ ptwell=0 ngcon=2 nf=1 plorient=1 p_la=0 par=1 pccrit=0 sizedup=0
+ pre_layout_local=0
XMDC0@744 VDD VSS VDD VDD pfet L=5e-06 W=5e-06 AD=5.25e-13 AS=5.25e-13
+ PD=1.021e-05 PS=1.021e-05 M=1 sca=7.41019 scb=0.00658528 scc=0.000443878
+ lpccnr=4.504e-06 covpccnr=0 wrxcnr=4.5e-06 sa=1.05e-07 sb=1.05e-07 sd=0
+ ptwell=0 ngcon=2 nf=1 plorient=1 p_la=0 par=1 pccrit=0 sizedup=0
+ pre_layout_local=0
XMDC0@743 VDD VSS VDD VDD pfet L=5e-06 W=5e-06 AD=5.25e-13 AS=5.25e-13
+ PD=1.021e-05 PS=1.021e-05 M=1 sca=7.41019 scb=0.00658528 scc=0.000443878
+ lpccnr=4.504e-06 covpccnr=0 wrxcnr=4.5e-06 sa=1.05e-07 sb=1.05e-07 sd=0
+ ptwell=0 ngcon=2 nf=1 plorient=1 p_la=0 par=1 pccrit=0 sizedup=0
+ pre_layout_local=0
XMDC0@742 VDD VSS VDD VDD pfet L=5e-06 W=5e-06 AD=5.25e-13 AS=5.25e-13
+ PD=1.021e-05 PS=1.021e-05 M=1 sca=7.41019 scb=0.00658528 scc=0.000443878
+ lpccnr=4.504e-06 covpccnr=0 wrxcnr=4.5e-06 sa=1.05e-07 sb=1.05e-07 sd=0
+ ptwell=0 ngcon=2 nf=1 plorient=1 p_la=0 par=1 pccrit=0 sizedup=0
+ pre_layout_local=0
XMDC0@741 VDD VSS VDD VDD pfet L=5e-06 W=5e-06 AD=5.25e-13 AS=5.25e-13
+ PD=1.021e-05 PS=1.021e-05 M=1 sca=7.41019 scb=0.00658528 scc=0.000443878
+ lpccnr=4.504e-06 covpccnr=0 wrxcnr=4.5e-06 sa=1.05e-07 sb=1.05e-07 sd=0
+ ptwell=0 ngcon=2 nf=1 plorient=1 p_la=0 par=1 pccrit=0 sizedup=0
+ pre_layout_local=0
XMDC0@740 VDD VSS VDD VDD pfet L=5e-06 W=5e-06 AD=5.25e-13 AS=5.25e-13
+ PD=1.021e-05 PS=1.021e-05 M=1 sca=4.30942 scb=0.00379615 scc=0.000194942
+ lpccnr=4.504e-06 covpccnr=0 wrxcnr=4.5e-06 sa=1.05e-07 sb=1.05e-07 sd=0
+ ptwell=0 ngcon=2 nf=1 plorient=1 p_la=0 par=1 pccrit=0 sizedup=0
+ pre_layout_local=0
XMDC0@739 VDD VSS VDD VDD pfet L=5e-06 W=5e-06 AD=5.25e-13 AS=5.25e-13
+ PD=1.021e-05 PS=1.021e-05 M=1 sca=7.41019 scb=0.00658528 scc=0.000443878
+ lpccnr=4.504e-06 covpccnr=0 wrxcnr=4.5e-06 sa=1.05e-07 sb=1.05e-07 sd=0
+ ptwell=0 ngcon=2 nf=1 plorient=1 p_la=0 par=1 pccrit=0 sizedup=0
+ pre_layout_local=0
XMDC0@738 VDD VSS VDD VDD pfet L=5e-06 W=5e-06 AD=5.25e-13 AS=5.25e-13
+ PD=1.021e-05 PS=1.021e-05 M=1 sca=4.30942 scb=0.00379615 scc=0.000194942
+ lpccnr=4.504e-06 covpccnr=0 wrxcnr=4.5e-06 sa=1.05e-07 sb=1.05e-07 sd=0
+ ptwell=0 ngcon=2 nf=1 plorient=1 p_la=0 par=1 pccrit=0 sizedup=0
+ pre_layout_local=0
XMDC0@737 VDD VSS VDD VDD pfet L=5e-06 W=5e-06 AD=5.25e-13 AS=5.25e-13
+ PD=1.021e-05 PS=1.021e-05 M=1 sca=7.41019 scb=0.00658528 scc=0.000443878
+ lpccnr=4.504e-06 covpccnr=0 wrxcnr=4.5e-06 sa=1.05e-07 sb=1.05e-07 sd=0
+ ptwell=0 ngcon=2 nf=1 plorient=1 p_la=0 par=1 pccrit=0 sizedup=0